	20
SCF DONE -568.302259902
 O   -2.494044   -2.818596    4.158261
 O   -0.594567   -3.319859    2.364150
 O   -0.576258    1.643868    3.000189
 O   -4.125013   -0.122048    1.899617
 O    0.866757    2.257455    4.997232
 O   -1.854864   -1.098368    2.580285
 O   -2.293653   -2.974432    0.548834
 O   -2.037044   -0.390896    0.272898
 O   -0.091606   -0.089914    4.861721
 O    0.600246   -0.934717    2.494600
 O   -4.169823   -2.617741    2.166259
 O   -2.750099    0.661343    4.051223
Bi    1.262803    0.831848    3.494398
Bi   -0.490318   -1.979174    4.024521
Bi   -3.815020   -1.535493    0.388120
Bi   -1.159007    1.673581    5.052788
Bi   -2.275889    0.945823    1.973948
Bi   -2.581876   -3.974585    2.386100
Bi   -3.797993   -1.178680    3.706543
Bi   -0.541522   -1.794598    0.894743
